Version 4
SHEET 1 1088 680
WIRE -32 32 -160 32
WIRE 208 32 32 32
WIRE 224 32 208 32
WIRE -160 96 -160 32
WIRE 208 96 208 32
WIRE -160 224 -160 176
WIRE 208 224 208 176
WIRE 208 224 -160 224
WIRE -160 272 -160 224
FLAG -160 272 0
FLAG 224 32 Vout
IOPIN 224 32 Out
SYMBOL diode -32 48 R270
WINDOW 0 32 32 VTop 2
WINDOW 3 0 32 VBottom 2
SYMATTR InstName D1
SYMATTR Value 1N4148
SYMBOL res 192 80 R0
SYMATTR InstName R1
SYMATTR Value 1k
SYMBOL voltage -160 80 R0
WINDOW 123 0 0 Left 0
WINDOW 39 0 0 Left 0
SYMATTR InstName V1
SYMATTR Value SINE(0 5 1k)
TEXT -48 248 Left 2 !.tran 3m
TEXT -656 -48 Left 2 ;V(n001)-V(vout) line\nshows voltage drop on diode\nin positive period the voltage\nis arround 0.6V\nin negative period the diode doesnt\nconduct as the voltage is in reverse\nso the vout in negative period is zero
TEXT -736 184 Left 2 ;view - posible traces -> to see all traces
TEXT -264 -176 Left 2 ;time domain transient analysis is where a parameter such as a voltage or current is plotted against time.\nIf you are looking at an output you can see the behavior over a specified length of time.\nFor this example we are going simulate the output of a half-wave rectifier.\nFor this type of analysis we will cover how to add an AC signal source to your schematic and choose a specific diode.
