Version 4
SHEET 1 2232 680
WIRE 144 128 64 128
WIRE -352 144 -352 80
WIRE -208 144 -208 80
WIRE 416 160 288 160
WIRE 544 160 416 160
WIRE 0 192 -64 192
WIRE 144 192 0 192
WIRE -352 272 -352 224
WIRE -208 272 -208 224
WIRE 416 272 416 160
WIRE -64 352 -64 192
WIRE 64 384 64 128
WIRE 416 384 416 352
WIRE 416 384 64 384
WIRE 416 432 416 384
WIRE -64 512 -64 432
WIRE 416 544 416 512
FLAG -64 512 0
FLAG 416 544 0
FLAG -208 272 0
FLAG -352 272 0
FLAG -352 80 V+
FLAG -208 80 V-
FLAG 544 160 Vout
IOPIN 544 160 Out
FLAG 176 80 V+
FLAG 176 240 V-
FLAG 0 192 Vin
SYMBOL OpAmps\\LT6200 176 160 R0
SYMATTR InstName U1
SYMBOL voltage -64 336 R0
WINDOW 123 24 124 Left 2
WINDOW 39 0 0 Left 0
SYMATTR InstName V1
SYMATTR Value ""
SYMATTR Value2 AC 1
SYMBOL res 400 256 R0
SYMATTR InstName R1
SYMATTR Value 900 noiseless
SYMBOL res 400 416 R0
SYMATTR InstName R2
SYMATTR Value 100 noiseless
SYMBOL voltage -352 128 R0
WINDOW 123 0 0 Left 0
WINDOW 39 0 0 Left 0
SYMATTR InstName V2
SYMATTR Value 2.5
SYMBOL voltage -208 128 R0
WINDOW 123 0 0 Left 0
WINDOW 39 0 0 Left 0
SYMATTR InstName V3
SYMATTR Value -2.5
TEXT -8 576 Left 2 ;.ac dec 100 100 40e6
TEXT 552 56 Left 2 !.noise V(Vout) V1 dec 100 100 40Meg
